xflr5 v6.48

 Calculated polar for: NACA 2412

 1 1 Reynolds number fixed          Mach number fixed         

 xtrf =   1.000 (top)        1.000 (bottom)
 Mach =   0.400     Re =    10.000 e 6     Ncrit =   9.000

  alpha     CL        CD       CDp       Cm    Top Xtr Bot Xtr   Cpmin    Chinge    XCp    
 ------- -------- --------- --------- -------- ------- ------- -------- --------- ---------
  -5.000  -0.3723   0.00617   0.00181  -0.0588  0.6694  0.0267  -2.7585   0.0000   0.0836
  -4.500  -0.3073   0.00601   0.00159  -0.0584  0.6380  0.0331  -2.3581   0.0000   0.0514
  -4.000  -0.2425   0.00590   0.00141  -0.0580  0.6047  0.0381  -1.9856   0.0000   0.0016
  -3.500  -0.1780   0.00577   0.00124  -0.0578  0.5741  0.0479  -1.6872   0.0000  -0.0848
  -3.000  -0.1137   0.00567   0.00111  -0.0576  0.5442  0.0596  -1.4140   0.0000  -0.2696
  -2.500  -0.0495   0.00558   0.00100  -0.0575  0.5171  0.0747  -1.1622   0.0000  -0.9354
  -2.000   0.0145   0.00546   0.00090  -0.0575  0.4937  0.0994  -0.9585   0.0000   4.2830
  -1.500   0.0787   0.00538   0.00083  -0.0576  0.4717  0.1190  -0.7729   0.0000   0.9888
  -1.000   0.1425   0.00530   0.00078  -0.0577  0.4488  0.1522  -0.6165   0.0000   0.6565
  -0.500   0.2062   0.00525   0.00076  -0.0578  0.4278  0.1861  -0.5850   0.0000   0.5299
   0.000   0.2704   0.00518   0.00075  -0.0580  0.4132  0.2194  -0.6375   0.0000   0.4630
   0.500   0.3340   0.00514   0.00077  -0.0581  0.3909  0.2629  -0.6941   0.0000   0.4218
   1.000   0.3973   0.00517   0.00082  -0.0582  0.3637  0.3077  -0.7565   0.0000   0.3937
   1.500   0.4601   0.00524   0.00090  -0.0581  0.3319  0.3569  -0.8258   0.0000   0.3731
   2.000   0.5221   0.00534   0.00103  -0.0579  0.2918  0.4191  -0.9055   0.0000   0.3573
   2.500   0.5840   0.00542   0.00117  -0.0577  0.2570  0.5017  -1.0032   0.0000   0.3447
   3.000   0.6456   0.00561   0.00136  -0.0573  0.2164  0.5657  -1.1319   0.0000   0.3343
   3.500   0.7067   0.00587   0.00162  -0.0568  0.1742  0.6298  -1.2950   0.0000   0.3254
   4.000   0.7676   0.00615   0.00190  -0.0561  0.1362  0.6970  -1.4928   0.0000   0.3177
   4.500   0.8283   0.00645   0.00222  -0.0552  0.1022  0.7647  -1.7241   0.0000   0.3109
   5.000   0.8885   0.00679   0.00260  -0.0542  0.0723  0.8351  -1.9878   0.0000   0.3047
   5.500   0.9491   0.00705   0.00296  -0.0529  0.0568  0.9042  -2.2844   0.0000   0.2989
   6.000   1.0069   0.00735   0.00334  -0.0509  0.0445  0.9644  -2.6277   0.0000   0.2931
   6.500   1.0699   0.00779   0.00377  -0.0498  0.0335  0.9945  -3.0071   0.0000   0.2885
   7.000   1.1396   0.00827   0.00421  -0.0500  0.0263  1.0000  -3.4332   0.0000   0.2852
   7.500   1.1993   0.00879   0.00472  -0.0479  0.0208  1.0000  -3.9124   0.0000   0.2807
   8.000   1.2610   0.00925   0.00519  -0.0460  0.0183  1.0000  -4.4535   0.0000   0.2765
   8.500   1.3209   0.00985   0.00579  -0.0436  0.0151  1.0000  -5.0257   0.0000   0.2723
   9.500   1.4412   0.01106   0.00709  -0.0382  0.0117  1.0000  -6.2964   0.0000   0.2641
  10.000   1.4992   0.01177   0.00785  -0.0348  0.0104  1.0000  -6.9982   0.0000   0.2600
  10.500   1.5530   0.01268   0.00883  -0.0306  0.0082  1.0000  -7.7062   0.0000   0.2556
  11.000   1.5981   0.01374   0.01003  -0.0248  0.0070  1.0000  -8.3490   0.0000   0.2504
  11.500   1.6355   0.01504   0.01150  -0.0180  0.0069  1.0000  -9.0514   0.0000   0.2449
  12.000   1.6676   0.01678   0.01342  -0.0111  0.0068  1.0000  -9.8219   0.0000   0.2395
  12.500   1.6906   0.01925   0.01611  -0.0041  0.0068  1.0000  -10.5438   0.0000   0.2343
  13.000   1.7018   0.02285   0.01996   0.0023  0.0067  1.0000  -11.1683   0.0000   0.2293
  13.500   1.6982   0.02805   0.02545   0.0074  0.0066  1.0000  -11.6402   0.0000   0.2252
  14.000   1.6813   0.03518   0.03287   0.0101  0.0066  1.0000  -11.9528   0.0000   0.2223
  14.500   1.6537   0.04418   0.04213   0.0102  0.0065  1.0000  -12.1217   0.0000   0.2209
  15.000   1.6194   0.05458   0.05276   0.0082  0.0063  1.0000  -12.1905   0.0000   0.2208
  15.500   1.5808   0.06614   0.06451   0.0046  0.0062  1.0000  -12.1799   0.0000   0.2218
  16.000   1.5410   0.07816   0.07670   0.0002  0.0061  1.0000  -12.1268   0.0000   0.2234
  16.500   1.5008   0.09063   0.08930  -0.0049  0.0060  1.0000  -12.0359   0.0000   0.2257
  17.000   1.4615   0.10351   0.10230  -0.0107  0.0059  1.0000  -11.9133   0.0000   0.2287
  17.500   1.4229   0.11636   0.11524  -0.0169  0.0058  1.0000  -11.7584   0.0000   0.2323
  18.000   1.3870   0.12939   0.12835  -0.0238  0.0056  1.0000  -11.5841   0.0000   0.2365
  18.500   1.3525   0.14270   0.14173  -0.0313  0.0055  1.0000  -11.3661   0.0000   0.2416
  19.000   1.3196   0.15598   0.15508  -0.0394  0.0054  1.0000  -11.1079   0.0000   0.2474
  19.500   1.2907   0.16917   0.16831  -0.0477  0.0052  1.0000  -10.8395   0.0000   0.2537
  20.000   1.2650   0.18260   0.18179  -0.0567  0.0051  1.0000  -10.5444   0.0000   0.2607
  20.500   1.2404   0.19655   0.19577  -0.0663  0.0049  1.0000  -10.1774   0.0000   0.2686
  21.000   1.2199   0.21047   0.20973  -0.0760  0.0047  1.0000  -9.7976   0.0000   0.2768
  21.500   1.2046   0.22404   0.22332  -0.0854  0.0045  1.0000  -9.4383   0.0000   0.2848
  22.000   1.1920   0.23770   0.23700  -0.0950  0.0041  1.0000  -9.0380   0.0000   0.2929
  22.500   1.1725   0.25330   0.25263  -0.1077  0.0036  1.0000  -8.1801   0.0000   0.3048


